<configuration>
    <input>
        <net-file value="junction.net.xml"/>
        <route-files value="junction.rou.xml"/>
    </input>
    <time>
        <begin value="0"/>
        <end value="3600"/>
        <step-length value="1"/>
    </time>
</configuration>
